
     RDKit          3D

 16 17  0  0  0  0  0  0  0  0999 V2000
    9.5680    6.1850   22.5320 C   0  0  0  0  0  0  0  0  0  0  0  0
   10.8630    5.8750   23.2720 C   0  0  0  0  0  0  0  0  0  0  0  0
   10.9310    6.0650   24.4350 O   0  0  0  0  0  0  0  0  0  0  0  0
   11.9960    5.3370   22.5370 N   0  0  0  0  0  0  0  0  0  0  0  0
   13.2490    4.9960   23.1820 C   0  0  0  0  0  0  0  0  0  0  0  0
   13.6090    3.5660   22.7730 C   0  0  0  0  0  0  0  0  0  0  0  0
   12.6260    2.4880   23.2560 C   0  0  0  0  0  0  0  0  0  0  0  0
   11.5200    2.6720   24.0710 C   0  0  0  0  0  0  0  0  0  0  0  0
   10.9260    1.4990   24.2460 N   0  0  0  0  0  0  0  0  0  0  0  0
   11.5990    0.5200   23.5750 C   0  0  0  0  0  0  0  0  0  0  0  0
   11.3590   -0.8740   23.4560 C   0  0  0  0  0  0  0  0  0  0  0  0
   12.2190   -1.6580   22.6920 C   0  0  0  0  0  0  0  0  0  0  0  0
   13.3130   -1.0710   22.0460 C   0  0  0  0  0  0  0  0  0  0  0  0
   13.5470    0.2980   22.1700 C   0  0  0  0  0  0  0  0  0  0  0  0
   12.6720    1.1040   22.9470 C   0  0  0  0  0  0  0  0  0  0  0  0
   14.1600   -1.8320   21.2960 F   0  0  0  0  0  0  0  0  0  0  0  0
  2  1  1  0
  3  2  2  0
  4  2  1  0
  5  4  1  0
  6  5  1  0
  7  6  1  0
  8  7  2  0
  9  8  1  0
 10  9  1  0
 11 10  2  0
 12 11  1  0
 13 12  2  0
 14 13  1  0
 15 14  2  0
 15 10  1  0
 15  7  1  0
 16 13  1  0
M  END
