
     RDKit          3D

 17 19  0  0  0  0  0  0  0  0999 V2000
   10.6560    0.4050   20.5890 O   0  0  0  0  0  0  0  0  0  0  0  0
    9.8430    0.0930   21.4440 C   0  0  1  0  0  0  0  0  0  0  0  0
   10.2630   -0.4750   22.7820 C   0  0  2  0  0  0  0  0  0  0  0  0
   11.7580   -0.9300   22.9120 C   0  0  1  0  0  0  0  0  0  0  0  0
   12.7750   -1.2190   21.7690 C   0  0  0  0  0  0  0  0  0  0  0  0
   13.6480   -0.0670   22.2630 C   0  0  0  0  0  0  0  0  0  0  0  0
   12.8350   -0.0160   23.5580 C   0  0  0  0  0  0  0  0  0  0  0  0
   11.2510   -2.1800   23.6730 C   0  0  0  0  0  0  0  0  0  0  0  0
    9.8450   -1.9220   23.1020 C   0  0  0  0  0  0  0  0  0  0  0  0
    8.5200    0.3300   21.3290 N   0  0  0  0  0  0  0  0  0  0  0  0
    7.7150    0.4240   20.1650 C   0  0  0  0  0  0  0  0  0  0  0  0
    6.3720    0.8270   20.3020 C   0  0  0  0  0  0  0  0  0  0  0  0
    5.7360    1.0380   21.6530 C   0  0  0  0  0  0  0  0  0  0  0  0
    8.2030    0.1670   18.8800 C   0  0  0  0  0  0  0  0  0  0  0  0
    7.4880    0.3510   17.7660 N   0  0  0  0  0  0  0  0  0  0  0  0
    6.2350    0.7930   17.9090 C   0  0  0  0  0  0  0  0  0  0  0  0
    5.6430    1.0280   19.1340 C   0  0  0  0  0  0  0  0  0  0  0  0
  2  1  1  1
  3  2  1  0
  4  3  1  0
  4  5  1  6
  6  5  1  0
  7  6  1  0
  7  4  1  0
  8  4  1  0
  3  9  1  6
  9  8  1  0
 10  2  1  0
 11 10  1  0
 12 11  1  0
 13 12  1  0
 14 11  1  0
 15 14  1  0
 16 15  1  0
 17 16  1  0
 17 12  1  0
M  END
$$$$
