
     RDKit          3D

 13 13  0  0  0  0  0  0  0  0999 V2000
    6.9880   -5.0020   26.5000 C   0  0  0  0  0  0  0  0  0  0  0  0
    8.6440   -4.4210   26.0420 S   0  0  2  0  0  0  0  0  0  0  0  0
    9.6230   -5.5120   26.0310 O   0  0  0  0  0  0  0  0  0  0  0  0
    9.2190   -3.5830   27.0800 O   0  0  0  0  0  0  0  0  0  0  0  0
    8.5850   -3.5900   24.5550 N   0  0  0  0  0  0  0  0  0  0  0  0
    9.8310   -3.0910   24.0330 C   0  0  0  0  0  0  0  0  0  0  0  0
    9.7190   -1.8070   23.2220 C   0  0  0  0  0  0  0  0  0  0  0  0
   11.1190   -1.2130   23.2400 C   0  0  0  0  0  0  0  0  0  0  0  0
   11.4520   -0.1730   24.0990 C   0  0  0  0  0  0  0  0  0  0  0  0
   12.7460    0.3210   24.0970 C   0  0  0  0  0  0  0  0  0  0  0  0
   13.7030   -0.2360   23.2650 C   0  0  0  0  0  0  0  0  0  0  0  0
   13.3680   -1.2840   22.4170 C   0  0  0  0  0  0  0  0  0  0  0  0
   12.0760   -1.7690   22.4130 C   0  0  0  0  0  0  0  0  0  0  0  0
  2  1  1  1
  3  2  2  0
  4  2  2  0
  5  2  1  0
  6  5  1  0
  7  6  1  0
  8  7  1  0
  9  8  2  0
 10  9  1  0
 11 10  2  0
 12 11  1  0
 13 12  2  0
 13  8  1  0
M  END
